/*--------------------------------*- C++ -*----------------------------------*\
| =========                 |                                                 |
| \\      /  F ield         | OpenFOAM: The Open Source CFD Toolbox           |
|  \\    /   O peration     | Version:  1.5                                   |
|   \\  /    A nd           | Web:      http://www.OpenFOAM.org               |
|    \\/     M anipulation  |                                                 |
\*---------------------------------------------------------------------------*/
FoamFile
{
    version     2.0;
    format      ascii;
    class       dictionary;
    object      blockMeshDict;
}
// * * * * * * * * * * * * * * * * * * * * * * * * * * * * * * * * * * * * * //
convertToMeters 1.;

vertices        
(
    (0 0 0)  
    (20 0 0)  
    (20 6 0)  
    (0 6 0)  
    (0 0  6.75)  
    (20 0 6.75)  
    (20 6 6.75)  
    (0 6  6.75)  
);

blocks          
(
    hex (0 1 2 3 4 5 6 7) (66 20 22) simpleGrading (1 1 1)
);

edges           
(
);

patches         
(
    patch inlet
    (
        (0 4 7 3)
    )
    patch outlet
    (
        (2 6 5 1)
    )
    patch right
    (
        (1 5 4 0)
    )
    patch left
    (
        (3 7 6 2)
    )
    patch bottom
    (
        (0 3 2 1)
    )
    patch top
    (
        (4 5 6 7)
    )
);

mergePatchPairs
(
);
// ************************************************************************* //


